388
Properties=species:S:1:pos:R:3 pbc="F F F"
O       15.59500000      11.07100000      15.45600000
C       16.23200000       9.80600000      15.42400000
C       17.74500000       9.96200000      15.63900000
O       18.24700000      11.01700000      14.81700000
C       18.11200000      10.34000000      17.07100000
O       18.24400000       9.18900000      17.87700000
C       19.45500000      11.01900000      16.84200000
C       19.31300000      11.69000000      15.48200000
N       19.03600000      13.15200000      15.60600000
C       20.02200000      14.06300000      15.22700000
O       21.16500000      13.70300000      14.94600000
N       19.73100000      15.38700000      15.18000000
C       18.54400000      15.81800000      15.57300000
N       18.32700000      17.11100000      15.48400000
C       17.55000000      14.94200000      16.08900000
C       17.83700000      13.61200000      16.09100000
H       16.06171000       9.34300000      14.45243000
H       15.82228000       9.16333000      16.20635000
H       18.25463000       9.02842000      15.40034000
H       17.38247000      11.03642000      17.48953000
H       19.68833000      11.72649000      17.63430000
H       20.24121000      10.26734000      16.78565000
H       20.25044000      11.55584000      14.93417000
H       19.12215000      17.67235000      15.18729000
H       17.66772000      17.50127000      16.13271000
H       16.62887000      15.31319000      16.50904000
H       17.13041000      12.92675000      16.53975000
H       16.21711000      11.70486000      15.07789000
P       18.19900000       9.28000000      19.48600000
O       18.15500000       7.90800000      20.03100000
O       17.17000000      10.27500000      19.86600000
O       19.62900000       9.92300000      19.84400000
C       20.84100000       9.24800000      19.56800000
C       22.07300000      10.11600000      19.87500000
O       21.96900000      11.38200000      19.20700000
C       22.27200000      10.40900000      21.36400000
O       23.66800000      10.44800000      21.63300000
C       21.53500000      11.74000000      21.49200000
C       21.78500000      12.43900000      20.14900000
N       20.67600000      13.36400000      19.75300000
C       19.32000000      13.14800000      19.82100000
N       18.57800000      14.18100000      19.51600000
C       19.51600000      15.16700000      19.19800000
C       19.34100000      16.53700000      18.79400000
O       18.29800000      17.16800000      18.63100000
N       20.53700000      17.19600000      18.57400000
C       21.76500000      16.61400000      18.71200000
N       22.82500000      17.37400000      18.56500000
N       21.95900000      15.34900000      19.08600000
C       20.79800000      14.66900000      19.31700000
H       20.86553000       8.97177000      18.51578000
H       20.88488000       8.33654000      20.16502000
H       22.95650000       9.59166000      19.51513000
H       21.79696000       9.65422000      21.99254000
H       20.47542000      11.54039000      21.64242000
H       21.90147000      12.33592000      22.32217000
H       22.71268000      13.01519000      20.23158000
H       18.88912000      12.20352000      20.13198000
H       20.50387000      18.18654000      18.39067000
H       22.71562000      18.38716000      18.50889000
H       23.67577000      16.98135000      18.91804000
P       24.27200000      10.92600000      23.05100000
O       25.54600000      10.21700000      23.29500000
O       23.18700000      10.89300000      24.05700000
O       24.59300000      12.46700000      22.69600000
C       25.57900000      12.82400000      21.73600000
C       25.87000000      14.33600000      21.67600000
O       24.71300000      15.05600000      21.24900000
C       26.31100000      14.93300000      23.02400000
O       27.30900000      15.90800000      22.76800000
C       25.00000000      15.49700000      23.52500000
C       24.41800000      16.04300000      22.22400000
N       22.96000000      16.30600000      22.26700000
C       22.50000000      17.56500000      21.89500000
O       23.22100000      18.49000000      21.54300000
N       21.13300000      17.75000000      21.92700000
C       20.18000000      16.84200000      22.32500000
O       18.99600000      17.17500000      22.30600000
C       20.73600000      15.56400000      22.74100000
C       19.82200000      14.46500000      23.25300000
C       22.07200000      15.33600000      22.69000000
H       25.25004000      12.49095000      20.75175000
H       26.50761000      12.30883000      21.98404000
H       26.67152000      14.50015000      20.95720000
H       26.69045000      14.16765000      23.70349000
H       24.39509000      14.69512000      23.94219000
H       25.14091000      16.27248000      24.27173000
H       24.95799000      16.96569000      21.98140000
H       20.82651000      18.68159000      21.69193000
H       20.39515000      13.65680000      23.70706000
H       19.14716000      14.88335000      24.00017000
H       19.22591000      14.07595000      22.42901000
H       22.47470000      14.37639000      22.98369000
P       27.99300000      16.81100000      23.92500000
O       29.42700000      16.98800000      23.61000000
O       27.58300000      16.27800000      25.24200000
O       27.23900000      18.23100000      23.71100000
C       27.51400000      19.03300000      22.57300000
C       27.13300000      20.52200000      22.70400000
O       25.72700000      20.72700000      22.68300000
C       27.63800000      21.19800000      23.98100000
O       27.87000000      22.56800000      23.70000000
C       26.45800000      20.99500000      24.92700000
C       25.27700000      21.14400000      23.96800000
N       24.13300000      20.30000000      24.36100000
C       24.12600000      18.95700000      24.62700000
N       22.95300000      18.47900000      24.95700000
C       22.12100000      19.60500000      24.86200000
C       20.73600000      19.83900000      25.01600000
N       19.84500000      18.90200000      25.29800000
N       20.23000000      21.06500000      24.83300000
C       21.05000000      22.04900000      24.49100000
N       22.35800000      21.97500000      24.29600000
C       22.83300000      20.71400000      24.49700000
H       26.99903000      18.61269000      21.70901000
H       28.58624000      18.99862000      22.37781000
H       27.56345000      21.04741000      21.85243000
H       28.54304000      20.71566000      24.35568000
H       26.50933000      19.99619000      25.35583000
H       26.42504000      21.73269000      25.72463000
H       24.97589000      22.19650000      23.92445000
H       25.03081000      18.36956000      24.57721000
H       18.86635000      19.17164000      25.27480000
H       20.14606000      17.94895000      25.31501000
H       20.60129000      23.02283000      24.34449000
P       28.56200000      23.54700000      24.77700000
C       26.41200000      25.04500000      25.09300000
O       27.28700000      24.05800000      25.62000000
C       25.14800000      25.21600000      25.94500000
O       24.32200000      24.06000000      25.90900000
C       25.41700000      25.47400000      27.43300000
O       25.76700000      26.82300000      27.70300000
C       24.08700000      25.01400000      28.06000000
C       23.36200000      24.25900000      26.93100000
N       22.74300000      22.97800000      27.37200000
C       21.37900000      22.95600000      27.64500000
O       20.66300000      23.94200000      27.48900000
N       20.78700000      21.82100000      28.06600000
C       21.53500000      20.75500000      28.23600000
N       20.91200000      19.65900000      28.56500000
C       22.92800000      20.71700000      27.98800000
C       23.50300000      21.86000000      27.55900000
O       29.13200000      24.69800000      24.04400000
O       29.41800000      22.72500000      25.65700000
F       23.23900000      26.04500000      28.42800000
F       24.36300000      24.21600000      29.15700000
H       26.94368000      25.99592000      25.04779000
H       26.11518000      24.76096000      24.08222000
H       24.58648000      26.06107000      25.54697000
H       26.21491000      24.79790000      27.74935000
H       22.57922000      24.90715000      26.52463000
H       21.38829000      18.79665000      28.42123000
H       19.90108000      19.75082000      28.52790000
H       23.51667000      19.82217000      28.09797000
H       24.55967000      21.91754000      27.31599000
P       26.36400000      27.22700000      29.13700000
O       27.06400000      28.51800000      28.98400000
O       27.08100000      26.05700000      29.68300000
O       25.05800000      27.47400000      30.05600000
C       24.34400000      28.69500000      29.98400000
C       23.11100000      28.74000000      30.89600000
O       22.02600000      27.98100000      30.36400000
C       23.36100000      28.25300000      32.32400000
O       23.77000000      29.31900000      33.16600000
C       21.96400000      27.77900000      32.71100000
C       21.31700000      27.32500000      31.40300000
N       21.39000000      25.85400000      31.25700000
C       22.50400000      25.06900000      31.29400000
N       22.26200000      23.78500000      31.34500000
C       20.86800000      23.71000000      31.30900000
C       19.97100000      22.58500000      31.34600000
O       20.21800000      21.38300000      31.40900000
N       18.63900000      22.95700000      31.32900000
C       18.20300000      24.24700000      31.26300000
N       16.91000000      24.46000000      31.30200000
N       19.00300000      25.31100000      31.23000000
C       20.32800000      24.97700000      31.24800000
H       24.02530000      28.85459000      28.95203000
H       25.01956000      29.50512000      30.25848000
H       22.77208000      29.77400000      30.94496000
H       24.06422000      27.41604000      32.32751000
H       24.67818000      29.51842000      32.90877000
H       22.00555000      26.98198000      33.45416000
H       21.39157000      28.61953000      33.10386000
H       20.26224000      27.60611000      31.37024000
H       23.50859000      25.47548000      31.25323000
H       17.97042000      22.20564000      31.30702000
H       16.27028000      23.67001000      31.31115000
H       16.62686000      25.38112000      31.04299000
O       12.13600000      16.79700000      32.92300000
C       11.23400000      17.72700000      33.50100000
C       11.46100000      19.18200000      33.04400000
O       12.65400000      19.75700000      33.57100000
C       11.55000000      19.36100000      31.53300000
O       10.25900000      19.37500000      30.96700000
C       12.23200000      20.72200000      31.46200000
C       13.22200000      20.66200000      32.62300000
N       14.58300000      20.20600000      32.19400000
C       15.55800000      21.16400000      31.90700000
O       15.28600000      22.36600000      31.89300000
N       16.84000000      20.79900000      31.66300000
C       17.15700000      19.51200000      31.64100000
N       18.43300000      19.22600000      31.50300000
C       16.18900000      18.48800000      31.86200000
C       14.91600000      18.87100000      32.14400000
H       11.32109000      17.68640000      34.58661000
H       10.21793000      17.44272000      33.22145000
H       10.61938000      19.78352000      33.38751000
H       12.19034000      18.60121000      31.08133000
H       12.72232000      20.88332000      30.50342000
H       11.50415000      21.51227000      31.64260000
H       13.31794000      21.66359000      33.05110000
H       19.03108000      20.02531000      31.29701000
H       18.66817000      18.33136000      31.13070000
H       16.45188000      17.44574000      31.81255000
H       14.15339000      18.12818000      32.32649000
H       11.99272000      16.79058000      31.96263000
P       10.04300000      19.06400000      29.40700000
O        8.59400000      18.95600000      29.14900000
O       10.96000000      17.96300000      29.03900000
O       10.58700000      20.41600000      28.72600000
C        9.94100000      21.65800000      28.93600000
C       10.62200000      22.79700000      28.16500000
O       11.99800000      22.91300000      28.54800000
C       10.57900000      22.59300000      26.65100000
O       10.37900000      23.84100000      26.01100000
C       11.94000000      21.96200000      26.39500000
C       12.85000000      22.60300000      27.44700000
N       13.95800000      21.69200000      27.85100000
C       13.87300000      20.35600000      28.16200000
N       15.01600000      19.77300000      28.38700000
C       15.94700000      20.79700000      28.20900000
C       17.38200000      20.78200000      28.28100000
O       18.13900000      19.84100000      28.49800000
N       17.95600000      22.02000000      28.05700000
C       17.24300000      23.14400000      27.76200000
N       17.92500000      24.24000000      27.52400000
N       15.91100000      23.18900000      27.65200000
C       15.31100000      21.98200000      27.89800000
H        9.94980000      21.89691000      29.99756000
H        8.90471000      21.57842000      28.60502000
H       10.10466000      23.72654000      28.39572000
H        9.78449000      21.90130000      26.36357000
H       11.85462000      20.88615000      26.53635000
H       12.29481000      22.15853000      25.39008000
H       13.27052000      23.52368000      27.03052000
H       12.92900000      19.82430000      28.20558000
H       18.96348000      22.04974000      28.01610000
H       18.94001000      24.18483000      27.45025000
H       17.41000000      24.95815000      27.05429000
P       10.33000000      23.97500000      24.40400000
O        9.40000000      25.06700000      24.04400000
O       10.16900000      22.62600000      23.81700000
O       11.83900000      24.46200000      24.12700000
C       12.26900000      25.74300000      24.54900000
C       13.66800000      26.11500000      24.04200000
O       14.64100000      25.25200000      24.62300000
C       13.81700000      26.03200000      22.51600000
O       14.64300000      27.10500000      22.08600000
C       14.45600000      24.65900000      22.36900000
C       15.38200000      24.63400000      23.58600000
N       15.80000000      23.26600000      24.00200000
C       17.15800000      23.03700000      24.24000000
O       18.03000000      23.89600000      24.14100000
N       17.51200000      21.75600000      24.59200000
C       16.66800000      20.67600000      24.70500000
O       17.15000000      19.59000000      25.01200000
C       15.26300000      20.97600000      24.43700000
C       14.22600000      19.86600000      24.51000000
C       14.87800000      22.24500000      24.12100000
H       12.26822000      25.77722000      25.63843000
H       11.56521000      26.48838000      24.17693000
H       13.87980000      27.13891000      24.34629000
H       12.84975000      26.06811000      22.01136000
H       13.67647000      23.90367000      22.41738000
H       14.99914000      24.55183000      21.43591000
H       16.26168000      25.24465000      23.35218000
H       18.49624000      21.58271000      24.72197000
H       13.23954000      20.23060000      24.22426000
H       14.51852000      19.06244000      23.83388000
H       14.19119000      19.46954000      25.52411000
H       13.83649000      22.46609000      23.93908000
P       15.04100000      27.35700000      20.53900000
O       14.90900000      28.80100000      20.24400000
O       14.37700000      26.35300000      19.68400000
O       16.60900000      27.00600000      20.58300000
C       17.49400000      27.85600000      21.28400000
C       18.98200000      27.56200000      21.07200000
O       19.34100000      26.30400000      21.62200000
C       19.41700000      27.56100000      19.60600000
O       20.73000000      28.09600000      19.55300000
C       19.31300000      26.08200000      19.26300000
C       19.70600000      25.41100000      20.58000000
N       18.98800000      24.13600000      20.78700000
C       17.63600000      23.90700000      20.76300000
N       17.29500000      22.66300000      20.96800000
C       18.52900000      22.02900000      21.15300000
C       18.92800000      20.70100000      21.41300000
N       18.07900000      19.69500000      21.55800000
N       20.22200000      20.38700000      21.51200000
C       21.12100000      21.35700000      21.38300000
N       20.89400000      22.64500000      21.15700000
C       19.56400000      22.91800000      21.04800000
H       17.27692000      27.78691000      22.35015000
H       17.31663000      28.88392000      20.96597000
H       19.54723000      28.33524000      21.59062000
H       18.73670000      28.15633000      18.99392000
H       18.28478000      25.85240000      18.98775000
H       19.98464000      25.80582000      18.45493000
H       20.78840000      25.24330000      20.59728000
H       16.93036000      24.70116000      20.57220000
H       18.44962000      18.78795000      21.82117000
H       17.10029000      19.90051000      21.56439000
H       22.15921000      21.06499000      21.47705000
P       21.47900000      28.39200000      18.16100000
C       23.19200000      26.42600000      18.65400000
O       22.14800000      26.95300000      17.83700000
C       23.44300000      24.92300000      18.43100000
O       22.27400000      24.14900000      18.68400000
C       23.92600000      24.54000000      17.01800000
O       25.35300000      24.65500000      16.92800000
C       23.35800000      23.10600000      16.89500000
C       22.54300000      22.85300000      18.17300000
N       21.28900000      22.06200000      17.96600000
C       21.33400000      20.68000000      18.10000000
O       22.38100000      20.08000000      18.32700000
N       20.20300000      19.94300000      18.02100000
C       19.07300000      20.56000000      17.77900000
N       18.01300000      19.80500000      17.78700000
C       18.96600000      21.95400000      17.58100000
C       20.10600000      22.67400000      17.66900000
O       22.53500000      29.38500000      18.44600000
O       20.42300000      28.72000000      17.17800000
F       24.32100000      22.11800000      16.85100000
F       22.55300000      23.05000000      15.77200000
H       24.11231000      26.97706000      18.45777000
H       22.92431000      26.56645000      19.70217000
H       24.21555000      24.60940000      19.13484000
H       23.43570000      25.19273000      16.29267000
H       23.17718000      22.32556000      18.89508000
H       17.14441000      20.27575000      17.92386000
H       18.19978000      18.88548000      18.17703000
H       18.02760000      22.44775000      17.39497000
H       20.10941000      23.75192000      17.55403000
P       26.13300000      24.56600000      15.51800000
O       27.38700000      25.35600000      15.61200000
O       25.16900000      24.83000000      14.43400000
O       26.57300000      23.02500000      15.40400000
C       27.52800000      22.49200000      16.30000000
C       27.91400000      21.03900000      15.98500000
O       26.79400000      20.17900000      16.15500000
C       28.43800000      20.83600000      14.55600000
O       29.50500000      19.90100000      14.53300000
C       27.21300000      20.31900000      13.82000000
C       26.41900000      19.59800000      14.91400000
N       24.95500000      19.68400000      14.70200000
C       24.20200000      20.77200000      14.32900000
N       22.92500000      20.52900000      14.21900000
C       22.81800000      19.18300000      14.55200000
C       21.66600000      18.33600000      14.64800000
O       20.47600000      18.61900000      14.51800000
N       21.99600000      17.02000000      14.91800000
C       23.25900000      16.56600000      15.13900000
N       23.39800000      15.27100000      15.33300000
N       24.34900000      17.33600000      15.11500000
C       24.06000000      18.64200000      14.81400000
H       27.12072000      22.53641000      17.31236000
H       28.42672000      23.10946000      16.27087000
H       28.68506000      20.76077000      16.70312000
H       28.76138000      21.79020000      14.13242000
H       29.27447000      19.20709000      15.16056000
H       26.66199000      21.17903000      13.43905000
H       27.47628000      19.64964000      13.00223000
H       26.69194000      18.54241000      14.93759000
H       24.62204000      21.76632000      14.20311000
H       21.22457000      16.38970000      15.03419000
H       22.57578000      14.67667000      15.37163000
H       24.28481000      14.99822000      15.70350000
H       25.48426000      25.04456000      13.55299000
H       20.66271000      29.01423000      16.29620000
H       14.90370000      25.74194000      19.16362000
H       10.94323000      22.10554000      23.59053000
H       11.90993000      18.09453000      29.08296000
H       28.04087000      26.04249000      29.68977000
H       30.37373000      22.78675000      25.59089000
H       28.24870000      16.01851000      25.88318000
H       23.40053000      10.86231000      24.99245000
H       17.43441000      11.13714000      20.19526000
$write
gbsa=true 
