627
7bfx_min.pdb
O         13.63400       35.63000       60.57900
C         14.81800       35.93100       59.81400
C         15.73600       34.68400       59.82700
O         15.37300       33.77500       58.77600
C         17.31100       34.94100       59.73700
O         17.55700       36.07900       58.99700
C         17.81100       33.71300       58.97500
C         16.55000       33.32800       58.09700
N         16.75100       34.05400       56.78600
C         16.20000       35.31300       56.46200
N         16.35400       35.64800       55.19600
C         17.13500       34.64600       54.65600
C         17.71000       34.44600       53.38700
N         17.70900       35.23900       52.33600
N         18.43600       33.36400       53.17200
C         18.58000       32.49900       54.12500
N         18.16100       32.51900       55.43000
C         17.39500       33.65400       55.62300
H         15.33200       36.76800       60.28700
H         14.53400       36.20300       58.80000
H         15.57400       34.15900       60.77000
H         17.74800       35.00600       60.73400
H         18.70100       33.87600       58.37600
H         18.00100       32.90800       59.68600
H         16.51400       32.25300       57.92100
H         15.62900       35.91300       57.14700
H         18.20400       34.96700       51.49900
H         17.21900       36.12100       52.36900
H         19.18500       31.64300       53.87300
H         13.06900       36.40600       60.58400
P         18.83500       36.98100       59.19800
O         19.11100       37.17700       60.60500
O         18.87000       38.07900       58.20700
O         19.97100       35.97400       58.60700
C         20.14000       35.82800       57.20500
C         21.10800       34.82800       56.69500
O         20.73300       34.32100       55.42400
C         22.50700       35.36800       56.42000
O         22.38800       36.57600       55.79900
C         23.08700       34.23600       55.60900
C         21.81700       33.90000       54.77200
N         21.82000       34.67000       53.44900
C         21.10200       35.77000       53.05600
N         21.25000       36.05100       51.82000
C         22.18800       35.05100       51.34700
C         22.73400       34.79800       50.05500
O         22.60600       35.50600       49.08100
N         23.51100       33.70500       50.02400
C         23.73600       32.90300       51.09600
N         24.31300       31.72800       50.86600
N         23.30000       33.12500       52.30100
C         22.53900       34.19600       52.37400
H         20.34200       36.80600       56.77500
H         19.16700       35.53900       56.81000
H         21.16900       33.99600       57.39800
H         23.03400       35.45600       57.37000
H         23.93200       34.52800       54.98900
H         23.34700       33.39500       56.25400
H         21.75700       32.82800       54.58300
H         20.44800       36.32300       53.71400
H         23.90500       33.45000       49.13400
H         24.59100       31.47900       49.92900
H         24.45200       31.07600       51.62500
P         23.57100       37.58400       55.81800
O         24.07000       37.60500       57.21500
O         23.10400       38.89400       55.25800
O         24.76700       36.89400       55.00300
C         24.86500       37.10900       53.58700
C         25.94900       36.16500       53.02400
O         25.57100       35.60700       51.78400
C         27.38200       36.69200       52.90400
O         27.35600       37.89400       52.15800
C         27.97500       35.41600       52.17200
C         26.78500       35.03200       51.24100
N         27.00200       35.43900       49.83200
C         27.70900       34.58200       48.95300
O         28.13700       33.49700       49.32800
N         27.82800       34.91000       47.68700
C         27.35300       36.02700       47.21800
N         27.33500       36.14100       45.95100
C         26.77800       37.00600       48.07600
C         26.58800       36.66400       49.36700
H         25.11200       38.15000       53.37800
H         23.90700       36.86600       53.12600
H         25.99200       35.32100       53.71600
H         27.80500       36.80500       53.90200
H         28.89000       35.61800       51.62300
H         28.14800       34.61800       52.89500
H         26.67600       33.94800       51.27000
H         27.74100       35.42500       45.37200
H         26.93500       36.96500       45.52500
H         26.41300       37.96000       47.72500
H         26.09600       37.36100       50.02800
P         28.59800       38.78700       52.28100
O         28.92900       38.86100       53.77700
O         28.35600       39.99700       51.45400
O         29.81000       38.03900       51.56900
C         29.81100       37.72100       50.18500
C         30.90000       36.74800       49.79300
O         30.59300       35.75200       48.81800
C         32.23700       37.36600       49.26200
O         31.96400       38.39500       48.31300
C         32.93000       36.13900       48.74600
C         31.74800       35.35000       48.08000
N         31.61200       35.60100       46.63400
C         30.59600       36.35200       46.06100
N         30.59200       36.32600       44.77000
C         31.67600       35.46900       44.47900
C         32.19500       34.95300       43.27000
N         31.64300       35.06600       42.09900
N         33.34000       34.21100       43.22100
C         33.89000       33.92900       44.39100
N         33.49400       34.28600       45.63300
C         32.33300       35.03400       45.59500
H         29.88600       38.63800       49.60100
H         28.86700       37.25700       49.94700
H         31.15400       36.19500       50.69900
H         32.78500       37.76900       50.11300
H         33.72200       36.36700       48.03500
H         33.33300       35.56100       49.57900
H         31.92900       34.28900       48.23100
H         29.88700       36.92600       46.63800
H         32.08300       34.65000       41.29100
H         30.77600       35.57300       41.99700
H         34.79200       33.34100       44.35600
P         33.10500       39.48600       48.03300
O         33.78500       39.82000       49.27300
O         32.31200       40.53200       47.32800
O         34.18900       38.72200       47.11800
C         33.82700       38.37700       45.81300
C         35.08900       38.11900       45.06100
O         34.93300       37.02800       44.15100
C         35.64100       39.20700       44.24200
O         34.63700       39.78300       43.42100
C         36.50200       38.44900       43.26200
C         36.05600       37.01200       43.30600
N         35.59900       36.60900       41.93500
C         34.41600       36.86900       41.35400
N         34.31800       36.50700       40.10700
C         35.60500       36.01100       39.80600
C         36.28800       35.56700       38.66000
N         35.72400       35.14100       37.46200
N         37.54100       35.19000       38.76400
C         38.22300       35.33900       39.88600
N         37.75000       35.73300       41.02200
C         36.37600       36.08000       40.95000
H         33.25900       39.17900       45.34200
H         33.22000       37.48000       45.84000
H         35.85900       37.82000       45.77600
H         36.19300       39.94000       44.83100
H         36.43300       38.84600       42.25900
H         37.54300       38.50200       43.58400
H         36.83900       36.36000       43.69200
H         33.59300       37.32100       41.88800
H         36.30500       34.72600       36.75000
H         34.73200       35.24900       37.30500
H         39.25800       35.03400       39.87300
P         34.78000       41.31600       42.95600
O         34.88300       42.18700       44.15800
O         33.57900       41.58300       42.13300
O         36.04100       41.36800       42.05900
C         36.05400       40.96300       40.72200
C         37.45300       40.62700       40.32700
O         37.75000       39.23300       40.20700
C         38.02900       41.39000       39.11600
O         37.07700       41.47900       38.04700
C         39.22100       40.45600       38.80800
C         38.64700       39.06800       39.17500
N         37.97000       38.37600       38.03500
C         38.83100       37.86500       37.00100
O         40.03000       37.68200       37.20200
N         38.21200       37.62100       35.81000
C         36.92900       37.81400       35.44400
O         36.55900       37.53700       34.33900
C         36.11100       38.31400       36.58700
C         34.63200       38.50200       36.45500
C         36.63800       38.53600       37.79500
H         35.66100       41.77300       40.10800
H         35.42500       40.08200       40.58800
H         38.08300       40.95500       41.15600
H         38.38000       42.37100       39.43500
H         39.55400       40.52100       37.77500
H         40.05100       40.69100       39.47500
H         39.46000       38.43200       39.52500
H         38.81400       37.27200       35.08300
H         34.43600       39.27000       35.70700
H         34.18100       37.56900       36.11700
H         34.17300       38.79700       37.39900
H         35.99700       38.89200       38.58700
P         37.00200       42.72900       37.13800
O         37.41900       43.93500       37.87300
O         35.64800       42.69500       36.44000
O         38.19100       42.41900       36.13500
C         38.24400       41.24800       35.33500
C         39.32700       41.34600       34.33000
O         39.55200       40.08000       33.77000
C         39.03900       42.29000       33.16500
O         37.79500       42.15500       32.57200
C         40.14900       41.74400       32.31900
C         40.33700       40.23400       32.63600
N         39.88100       39.30400       31.49800
C         40.80300       38.64900       30.74600
O         41.94400       39.05500       30.82200
N         40.40600       37.62800       29.88300
C         39.09100       37.46800       29.70600
N         38.68200       36.54200       28.87400
C         38.09800       38.19500       30.47200
C         38.53300       39.09000       31.34700
H         37.28800       41.10500       34.82900
H         38.42100       40.38600       35.97000
H         40.24000       41.66600       34.83800
H         39.23200       43.32200       33.46100
H         40.00300       41.87300       31.25300
H         41.07300       42.26300       32.58100
H         41.37800       40.04800       32.89900
H         39.35500       35.99600       28.35600
H         37.69400       36.37500       28.75000
H         37.03500       38.03400       30.36600
H         37.82000       39.63500       31.94700
P         37.31800       43.24200       31.54600
O         37.55900       44.67500       32.04400
O         35.97400       42.90900       31.14900
O         38.31900       43.18900       30.31300
C         37.85800       42.37500       29.27600
C         38.90400       42.33900       28.11000
O         39.68800       41.12000       28.08900
C         38.28000       42.39800       26.74100
O         37.19900       41.56500       26.59100
C         39.53000       41.88200       25.95800
C         40.35400       40.99300       26.88200
N         40.45100       39.58500       26.43000
C         41.65900       39.10300       25.82800
O         42.70500       39.80200       25.77600
N         41.64100       37.85000       25.16100
C         40.49300       37.27400       25.05200
N         40.52800       36.13300       24.40100
C         39.27100       37.71400       25.61400
C         39.30000       38.86400       26.27100
H         36.92700       42.78900       28.88500
H         37.68200       41.35900       29.63200
H         39.58000       43.19000       28.21500
H         38.04800       43.43700       26.53300
H         39.23200       41.34700       25.05800
H         40.14200       42.73500       25.66300
H         41.34900       41.42500       26.98800
H         41.40400       35.79400       24.03700
H         39.68400       35.59100       24.28100
H         38.33800       37.17700       25.51500
H         38.38000       39.24000       26.69300
P         36.11000       41.92700       25.55400
O         35.40600       43.09200       26.16300
O         35.30800       40.70600       25.21700
O         36.93600       42.31300       24.24900
C         37.16300       43.69900       23.96300
C         38.20700       44.22200       22.84400
O         39.55800       43.81900       23.16000
C         37.81400       43.77800       21.44200
O         36.81600       42.76000       21.44300
C         39.25300       43.45500       20.81000
C         40.20600       43.25800       21.99200
N         40.54300       41.90200       22.27100
C         41.88900       41.54500       22.23200
O         42.85500       42.32200       22.25900
N         42.25900       40.19800       22.22100
C         41.27700       39.32000       22.10400
N         41.68000       38.07600       21.91000
C         39.87100       39.63200       22.26800
C         39.53900       40.95600       22.34500
H         37.44100       44.22000       24.87300
H         36.19300       44.11500       23.68900
H         38.18900       45.31200       22.85700
H         37.42300       44.66100       20.93600
H         39.21300       42.55800       20.20100
H         39.58800       44.30100       20.20900
H         41.10900       43.83400       21.79100
H         42.66600       37.87000       21.83200
H         41.00200       37.33000       21.84400
H         39.09100       38.88400       22.28000
H         38.50500       41.24300       22.42600
P         35.74200       42.80300       20.24300
O         35.14800       44.10700       20.18600
O         34.96800       41.57400       20.27200
O         36.48700       42.77800       18.83800
C         37.19100       41.55700       18.39100
C         38.09300       41.90100       17.20500
O         39.26800       42.48400       17.76600
C         38.44300       40.66700       16.33500
O         38.59300       39.47500       17.08600
C         39.76200       41.25600       15.87500
C         40.24500       42.27600       16.82200
N         41.47500       41.87600       17.58300
C         42.63100       42.66700       17.56500
O         42.68000       43.70300       16.94100
N         43.74000       42.25000       18.18600
C         43.71300       41.13200       18.87000
N         44.78900       40.82700       19.48700
C         42.58000       40.34700       19.04700
C         41.46600       40.76000       18.34400
H         36.44700       40.82300       18.08100
H         37.78600       41.13500       19.20200
H         37.59600       42.63800       16.57100
H         37.73200       40.56300       15.51400
H         40.51200       40.48300       15.71800
H         39.59800       41.74400       14.91300
H         40.41700       43.20500       16.27900
H         45.60700       41.41300       19.39700
H         44.82200       39.99900       20.06500
H         42.55200       39.43700       19.62600
H         40.56600       40.17200       18.42000
P         38.37500       38.13400       16.37600
O         37.03800       38.11400       15.75500
O         38.64600       37.07900       17.36200
O         39.52900       38.09100       15.36200
C         40.83700       37.69600       15.72100
C         41.91700       37.59100       14.64300
O         42.35100       38.86500       14.10200
C         43.27100       36.93800       15.12800
O         43.69600       37.25300       16.51100
C         44.24600       37.48400       14.18000
C         43.66300       38.73100       13.52500
N         44.55500       39.89000       13.78700
C         45.36000       40.36000       12.75200
O         45.19300       40.00000       11.58200
N         46.32200       41.30600       12.92100
C         46.50500       41.58300       14.19300
N         47.56300       42.32000       14.30400
C         45.82000       41.12300       15.32300
C         44.79600       40.27000       15.08800
H         40.76500       36.70300       16.16300
H         41.20100       38.37000       16.49800
H         41.52900       36.98700       13.82200
H         43.21200       35.85600       15.00200
H         45.20300       37.68200       14.66200
H         44.41900       36.74600       13.39600
H         43.55400       38.54900       12.45600
H         48.06500       42.61100       13.47800
H         47.88700       42.60400       15.21800
H         46.06200       41.41100       16.33600
H         44.21700       39.86400       15.90500
P         43.80900       36.13700       17.59500
O         42.44300       35.69400       17.91800
O         44.53400       36.78200       18.64700
O         44.70700       34.93900       17.00500
C         45.99400       35.22400       16.41000
C         46.53700       34.31800       15.27300
O         46.08600       34.50400       13.95100
C         48.02800       34.30900       15.21800
O         48.58800       35.55100       15.28400
C         48.23700       33.59800       13.93700
C         47.08400       34.05500       13.04000
N         47.59700       35.13400       12.09700
C         48.07100       34.78300       10.83100
O         48.07100       33.60500       10.46900
N         48.46800       35.73600        9.91100
C         48.18900       36.99300       10.19900
N         48.52200       37.94100        9.38700
C         47.67800       37.41100       11.43100
C         47.42700       36.44200       12.38700
H         46.71300       35.19300       17.23000
H         46.00900       36.24600       16.04000
H         46.24400       33.30300       15.54600
H         48.40100       33.69900       16.04200
H         49.21200       33.81900       13.50000
H         48.15600       32.52200       14.10000
H         46.70300       33.20800       12.47000
H         48.95000       37.71900        8.50000
H         48.35400       38.90400        9.63900
H         47.51200       38.44800       11.68400
H         47.05000       36.74100       13.35300
P         50.09800       35.81800       15.64000
O         50.51800       36.87300       14.65800
O         50.80800       34.51300       15.67300
O         50.03000       36.40500       17.09400
C         49.90900       35.40200       18.13500
C         49.62700       36.02900       19.53100
O         48.26000       36.35600       19.74500
C         50.00200       35.06600       20.70900
O         49.43600       33.80800       20.57500
C         49.27200       35.83500       21.84200
C         48.07300       36.42700       21.16800
N         46.91500       35.60100       21.40600
C         46.39900       34.49800       20.67300
N         45.12000       34.25700       21.00300
C         44.83300       35.10400       22.04000
C         43.63800       35.29200       22.89700
O         42.50800       34.85700       22.85600
N         43.78300       36.34300       23.79300
C         44.86200       37.16300       23.82300
N         44.87700       38.25400       24.53300
N         45.92400       37.02300       23.04100
C         45.89300       35.93700       22.20900
H         50.84400       34.84300       18.19500
H         49.10000       34.70900       17.90500
H         50.22500       36.93600       19.63200
H         51.08000       35.02300       20.86300
H         49.01100       35.22100       22.69500
H         49.91400       36.64700       22.18600
H         47.91100       37.45600       21.48900
H         46.91900       33.99800       19.86900
H         42.99900       36.55000       24.39300
H         44.09400       38.47700       25.12900
H         45.67500       38.87200       24.49300
P         49.88000       32.49100       21.39000
O         51.39300       32.53900       21.35700
O         49.16800       31.32700       20.80400
O         49.53100       32.81400       22.89200
C         48.22300       32.69700       23.40300
C         48.06100       33.50000       24.67700
O         47.02000       34.44200       24.53000
C         47.86800       32.77600       25.99500
O         46.89100       31.75600       25.99400
C         47.46000       34.01100       26.77700
C         46.54600       34.83700       25.82700
N         45.08500       34.55800       26.03600
C         44.38100       33.48000       25.59800
N         43.15900       33.50400       25.97400
C         43.02500       34.71500       26.65800
C         41.85200       35.30300       27.23800
O         40.65300       34.82400       27.32900
N         42.13700       36.52200       27.83300
C         43.40500       36.97200       28.00200
N         43.55600       37.92300       28.86800
N         44.47100       36.43900       27.46300
C         44.23300       35.32300       26.77200
H         48.00500       31.64600       23.59200
H         47.51600       33.06500       22.66100
H         48.97600       34.08600       24.78900
H         48.82600       32.39300       26.34700
H         46.94700       33.76600       27.70400
H         48.34600       34.60000       27.02000
H         46.73500       35.90000       25.97700
H         44.80500       32.67900       25.01100
H         41.37800       37.01300       28.27900
H         42.74500       38.33000       29.30600
H         44.47900       38.27100       29.08400
P         46.82800       30.63200       27.11200
O         48.16500       30.10900       27.28000
O         45.78300       29.74000       26.63500
O         46.39700       31.40500       28.47000
C         45.11100       31.84200       28.72900
C         45.08400       32.68000       29.99700
O         43.89600       33.50000       29.91100
C         45.03900       31.90500       31.33700
O         44.93300       30.48800       31.31700
C         43.78700       32.46000       31.94400
C         43.57000       33.82000       31.19800
N         42.23600       34.30600       31.24600
C         41.22400       33.82500       30.43800
N         40.05200       34.33400       30.60600
C         40.28800       35.05500       31.76600
C         39.44500       35.74100       32.57600
N         38.10700       35.89900       32.50700
N         39.86800       36.36900       33.71400
C         41.15700       36.26700       33.99500
N         42.11400       35.66700       33.28700
C         41.59000       35.00100       32.19800
H         44.43500       30.99200       28.82200
H         44.78400       32.46000       27.90000
H         45.95100       33.34200       30.00700
H         45.90300       32.20800       31.93100
H         42.94000       31.79700       31.75800
H         43.91100       32.62900       33.01300
H         44.26400       34.57000       31.57900
H         41.42200       33.15100       29.61700
H         37.62500       36.42500       33.21900
H         37.58900       35.48800       31.74400
H         41.48500       36.78700       34.88200
P         45.60800       29.50200       32.34800
O         47.05300       29.65700       32.29300
O         44.99700       28.22600       32.13100
O         45.12600       30.12000       33.74600
C         43.87000       29.83500       34.25200
C         43.80300       30.45400       35.61500
O         43.28300       31.76900       35.57600
C         42.83400       29.65300       36.60600
O         41.58500       29.24500       35.96400
C         42.52700       30.79200       37.55500
C         42.49000       32.05200       36.74000
N         41.14200       32.43300       36.34900
C         40.37800       33.04300       37.34400
O         40.76800       33.43000       38.46300
N         39.15800       33.52300       36.94500
C         38.58100       33.33200       35.69200
O         37.53400       33.89800       35.46700
C         39.41200       32.58500       34.72800
C         38.92900       32.29300       33.29600
C         40.65300       32.13700       35.05400
H         43.75900       28.75400       34.34700
H         43.08400       30.22900       33.60800
H         44.79600       30.47900       36.06600
H         43.35200       28.82800       37.09600
H         41.59900       30.63000       38.10200
H         43.34000       30.87200       38.27800
H         42.95100       32.86400       37.30200
H         38.63600       34.06200       37.61500
H         38.16700       31.51500       33.33200
H         38.47300       33.18300       32.87100
H         39.75300       31.96700       32.66000
H         41.24900       31.60000       34.33200
P         40.82800       27.97500       36.44600
O         41.79500       26.87400       36.65500
O         39.68900       27.72500       35.54100
O         40.30500       28.35300       37.92100
C         39.14100       29.05900       38.04500
C         38.83000       29.50900       39.45400
O         38.52600       30.89900       39.58900
C         37.65000       28.68400       39.96600
O         36.49400       28.57600       39.21600
C         37.52200       29.56500       41.29300
C         37.77700       30.99800       40.77900
N         36.46300       31.67400       40.44900
C         35.78200       32.21300       41.52800
O         36.22700       32.35800       42.66300
N         34.50500       32.62100       41.29600
C         33.85100       32.65500       40.17000
O         32.66000       33.01900       40.13800
C         34.61300       32.15300       39.03300
C         33.99000       31.81100       37.70100
C         35.87500       31.60800       39.18800
H         38.32600       28.46000       37.63800
H         39.22300       29.95500       37.42700
H         39.70200       29.29800       40.07700
H         38.02000       27.69300       40.22700
H         36.54200       29.45800       41.75600
H         38.29700       29.28500       42.00800
H         38.32700       31.57500       41.52300
H         33.97300       32.85600       42.11400
H         33.06600       31.25700       37.86900
H         33.74400       32.73500       37.17700
H         34.65200       31.21200       37.07400
H         36.38700       31.12800       38.36700
P         35.54700       27.30000       39.29800
O         36.35300       26.03900       39.53500
O         34.65200       27.36000       38.09000
O         34.76100       27.54900       40.59200
C         33.87000       28.60100       40.81200
C         33.69900       28.69000       42.34900
O         33.72400       30.07400       42.75200
C         32.54300       28.03800       42.95100
O         31.40600       28.38800       42.16000
C         32.47000       28.67200       44.30000
C         32.92100       30.14600       43.90200
N         31.71000       30.99500       43.70400
C         31.13300       31.37300       42.54000
N         30.02000       32.08400       42.66600
C         29.96800       32.30700       44.03100
C         29.07400       33.07300       44.86100
O         28.12800       33.81800       44.59700
N         29.28400       32.91500       46.19000
C         30.35900       32.30000       46.71200
N         30.44800       32.32400       47.99200
N         31.15400       31.54600       46.04000
C         30.96700       31.53900       44.67300
H         32.92900       28.41700       40.29400
H         34.30900       29.52900       40.44700
H         34.58200       28.23800       42.80600
H         32.69700       26.96100       43.01700
H         31.47000       28.63500       44.73300
H         33.20300       28.22400       44.97300
H         33.50700       30.57000       44.71800
H         31.49500       31.03900       41.57900
H         28.64400       33.37300       46.81700
H         29.79000       32.86200       48.53400
H         31.18600       31.81400       48.45600
P         30.22000       27.37200       42.00100
O         30.78100       25.97900       41.82500
O         29.31200       27.96100       41.01600
O         29.43500       27.44200       43.40300
C         28.61200       28.48600       43.72500
C         28.17900       28.65700       45.13200
O         28.28900       29.95300       45.59100
C         26.79100       28.07700       45.52600
O         25.80200       28.59100       44.71600
C         26.85600       28.71600       46.91300
C         27.46600       30.08700       46.71900
N         26.45300       31.07900       46.71100
C         25.86500       31.41600       47.89000
O         26.09500       30.81200       48.89000
N         24.83900       32.29000       47.86900
C         24.39600       32.77800       46.74600
N         23.47800       33.70200       46.84400
C         24.87900       32.32000       45.55300
C         25.96800       31.52600       45.48800
H         27.72900       28.43400       43.08900
H         29.14000       29.39900       43.44900
H         28.91400       28.09300       45.71200
H         26.82700       26.98800       45.56700
H         25.87700       28.73000       47.38700
H         27.51500       28.12500       47.55200
H         28.11900       30.28800       47.56900
H         23.15200       33.99500       47.75300
H         23.09000       34.11900       46.01000
H         24.46900       32.66500       44.61500
H         26.38300       31.20900       44.54300
P         24.49400       27.78400       44.61800
O         24.82100       26.33300       44.41300
O         23.61600       28.46900       43.59400
O         23.67300       27.94500       45.94700
C         23.27000       29.12900       46.45400
C         22.56800       28.97800       47.79200
O         22.69000       30.14000       48.69400
C         21.06800       28.68800       47.65000
O         20.44300       29.49300       46.65600
C         20.56900       29.01200       49.04200
C         21.56000       30.09200       49.49300
N         20.84800       31.41100       49.42600
C         20.30400       31.93700       50.62900
O         20.28900       31.30700       51.68500
N         19.55400       33.07400       50.55800
C         19.35600       33.85500       49.44300
O         18.55900       34.78400       49.52600
C         20.05900       33.38400       48.23500
C         19.97600       34.14900       46.90500
C         20.71300       32.17500       48.29000
H         22.64400       29.65000       45.73200
H         24.14500       29.74800       46.61100
H         23.02100       28.13300       48.31300
H         20.90000       27.63600       47.42000
H         20.79100       29.24200       45.79700
H         19.53100       29.35200       49.03800
H         20.67300       28.13600       49.68300
H         21.86700       29.88700       50.51900
H         19.08800       33.37000       51.39700
H         18.93000       34.29200       46.63500
H         20.44200       35.12800       47.02400
H         20.48200       33.60100       46.11000
H         21.19000       31.82100       47.38900
$write
gbsa=true 
