390
Properties=species:S:1:pos:R:3 pbc="F F F"
O        1.92100000      -6.39000000      -4.64800000
C        2.42100000      -7.37500000      -3.73400000
C        3.01500000      -6.73900000      -2.44900000
O        2.32100000      -5.51900000      -2.12500000
C        3.09500000      -7.63100000      -1.18200000
O        4.50600000      -7.71500000      -0.81300000
C        2.20800000      -6.83700000      -0.24100000
C        2.21700000      -5.39200000      -0.71500000
N        1.07300000      -4.50400000      -0.42000000
C        1.32000000      -3.15500000      -0.27000000
O        2.43200000      -2.65800000      -0.22400000
N        0.19700000      -2.35200000      -0.22998000
C       -1.11200000      -2.76500000      -0.32001000
O       -2.05000000      -1.99000000      -0.28500000
C       -1.27300000      -4.19100000      -0.47000000
C       -2.57100000      -4.90900000      -0.72400000
C       -0.20100000      -5.00600000      -0.52000000
H        3.17982000      -7.99297000      -4.21543000
H        1.58937000      -8.01528000      -3.43741000
H        4.04033000      -6.44806000      -2.68605000
H        2.68839000      -8.63012000      -1.34057000
H        1.21756000      -7.27422000      -0.29979000
H        2.52240000      -6.88862000       0.80006000
H        3.13501000      -4.93011000      -0.32305000
H        0.39783000      -1.30577000      -0.10571000
H       -3.39826000      -4.20242000      -0.64317000
H       -2.56961000      -5.34215000      -1.72357000
H       -2.71230000      -5.68830000       0.02590000
H       -0.36446000      -6.05541000      -0.68097000
P        4.94500000      -8.19400000       0.68400000
O        6.22900000      -8.92700000       0.66800000
O        3.89800000      -9.00500000       1.34500000
O        5.08700000      -6.69300000       1.33600000
C        6.21800000      -5.90100000       0.87500000
C        6.36400000      -4.48800000       1.48300000
O        5.17399000      -3.69699000       1.43400000
C        6.80000000      -4.59600000       2.94000000
O        8.07500000      -3.93200000       3.14100000
C        5.62399000      -4.07900000       3.73301000
C        4.94095000      -3.16998000       2.74404000
N        3.51500000      -3.01300000       2.96001000
C        2.61100000      -4.05200000       2.88000000
N        1.36000000      -3.67700000       2.96000000
C        1.43100000      -2.29000000       3.10000000
C        0.39901000      -1.33103000       3.22998000
O       -0.79098000      -1.58897000       3.22307000
N        0.91900000      -0.03100000       3.34998000
C        2.26200000       0.29000000       3.34999000
N        2.60100000       1.62400000       3.43800000
N        3.23300000      -0.61100000       3.22000000
C        2.75100000      -1.87700000       3.10000000
H        6.12566000      -5.77854000      -0.20358000
H        7.13865000      -6.45502000       1.06738000
H        7.15190000      -3.96191000       0.94583000
H        6.93705000      -5.64627000       3.21007000
H        4.97971000      -4.92383000       3.97612000
H        5.89898000      -3.57303000       4.64230000
H        5.40456000      -2.18182000       2.82154000
H        2.93234000      -5.07693000       2.74805000
H        0.20450000       0.76102000       3.44401000
H        1.88369000       2.34888000       3.58299000
H        3.55642000       1.87913000       3.64251000
P        8.71400000      -3.90800000       4.63900000
O       10.18600000      -3.76400000       4.59700000
O        8.33300000      -5.09300000       5.43700000
O        7.98000000      -2.54500000       5.17200000
C        8.35100000      -1.32700000       4.48100000
C        7.79500000      -0.02099000       4.97699000
O        6.38295000       0.06193000       4.82604000
C        8.25700000       0.20701000       6.40200000
O        8.90400000       1.50200000       6.53800000
C        6.96501000       0.00301000       7.09700000
C        5.88202000       0.35102000       6.11000000
N        4.61501000      -0.37101000       6.34000000
C        4.51900000      -1.73500000       6.26000000
N        3.29800000      -2.17400000       6.33000000
C        2.54000000      -1.02600000       6.48000000
C        1.15200000      -0.81300000       6.61000000
N        0.28000000      -1.83600000       6.61700000
N        0.73000000       0.45400000       6.73000000
C        1.62800000       1.43500000       6.72000000
N        2.93600000       1.36900000       6.60000000
C        3.32900000       0.08700000       6.48000000
H        8.05389000      -1.42436000       3.43671000
H        9.43938000      -1.24692000       4.50182000
H        8.23551000       0.76790000       4.36869000
H        8.96042000      -0.56745000       6.72023000
H        6.91487000      -1.05245000       7.35856000
H        6.90182000       0.61495000       7.98096000
H        5.68448000       1.42585000       6.18704000
H        5.39246000      -2.36068000       6.16018000
H       -0.72699000      -1.68800000       6.71929000
H        0.60997000      -2.82486000       6.57232000
H        1.22163000       2.43300000       6.82423000
P        9.39800000       1.98200000       8.01500000
O       10.56200000       2.89200000       7.93200000
O        9.69300000       0.84500000       8.91500000
O        8.03700000       2.77000000       8.45600000
C        7.65200000       3.92400000       7.66400000
C        6.32800000       4.54100000       8.11900000
O        5.26200000       3.57800000       8.03400000
C        6.37200000       5.20600000       9.49200000
O        5.85600000       6.56400000       9.37800000
C        5.48500000       4.25500000      10.23100000
C        4.52100000       3.68300000       9.24100000
N        3.95200000       2.41200000       9.72000000
C        2.59300000       2.23000000       9.87000000
O        1.78400000       3.13900000       9.91000000
N        2.17600000       0.91500000       9.91000000
C        2.97300000      -0.20300000       9.82000000
O        2.52500000      -1.33400000       9.86900000
C        4.37900000       0.08400000       9.67000000
C        5.40000000      -1.01000000       9.66500000
C        4.82300000       1.35600000       9.62000000
H        7.53958000       3.62067000       6.62284000
H        8.43743000       4.67864000       7.72250000
H        6.09602000       5.33227000       7.40599000
H        7.38565000       5.20306000       9.89990000
H        6.11459000       3.47502000      10.65791000
H        4.95767000       4.76155000      11.02845000
H        3.71231000       4.40827000       9.09343000
H        1.10855000       0.78067000      10.01811000
H        5.27486000      -1.63534000       8.78608000
H        6.41739000      -0.62748000       9.73768000
H        5.22577000      -1.64389000      10.53407000
H        5.87614000       1.57231000       9.49665000
P        6.03900000       7.56300000      10.64500000
O        6.13500000       8.98000000      10.22800000
O        7.18300000       7.19800000      11.51000000
O        4.60900000       7.20700000      11.33200000
C        3.42200000       7.81600000      10.75800000
C        2.20100000       7.54500000      11.66500000
O        1.77400000       6.16500000      11.61900000
C        2.43000000       8.01300000      13.10700000
O        1.37100000       8.91800000      13.54500000
C        2.40500000       6.66700000      13.77900000
C        1.51700000       5.72700000      12.95400000
N        1.77900000       4.27400000      13.10000000
C        0.78800000       3.30700000      13.25000000
O       -0.39800000       3.60100000      13.29600000
N        1.15200000       2.00300000      13.30000000
C        2.43700000       1.64400000      13.19999000
N        2.80100000       0.29000000      13.28300000
C        3.47400000       2.61800000      13.05000000
C        3.08600000       3.92100000      13.00000000
H        3.23767000       7.40468000       9.76467000
H        3.56886000       8.89399000      10.67886000
H        1.37954000       8.14073000      11.26798000
H        3.40741000       8.48633000      13.22770000
H        3.43904000       6.34108000      13.82840000
H        2.04732000       6.72481000      14.80206000
H        0.46687000       5.93104000      13.18840000
H        2.08833000      -0.45092000      13.39182000
H        3.77061000       0.02641000      13.15273000
H        4.51017000       2.35111000      12.93368000
H        3.83197000       4.67612000      12.79914000
P        1.35400000       9.41800000      15.10700000
O        0.90700000      10.82300000      15.23200000
O        2.65300000       9.22900000      15.79000000
O        0.22100000       8.36700000      15.65900000
C       -1.09400000       8.50300000      15.07100000
C       -2.22600000       7.69200000      15.74000000
O       -2.15100000       6.29500000      15.40600000
C       -2.36200000       7.84300000      17.25600000
O       -3.69400000       8.15200000      17.68800000
C       -1.94900000       6.48100000      17.75700000
C       -2.14300000       5.50400000      16.59700000
N       -1.07300000       4.50400000      16.48000000
C        0.25300000       4.83300000      16.40000000
N        1.04900000       3.80800000      16.47000000
C        0.19100000       2.73300000      16.62000000
C        0.41700000       1.34700000      16.75000000
N        1.65400000       0.82300000      16.73300000
N       -0.65800000       0.55400000      16.87000000
C       -1.86800000       1.10500000      16.86000000
N       -2.21000000       2.37000000      16.74000000
C       -1.11200000       3.13900000      16.62000000
H       -1.04409000       8.21447000      14.01920000
H       -1.37717000       9.55595000      15.10928000
H       -3.15203000       8.06139000      15.29903000
H       -1.66110000       8.60443000      17.60839000
H       -0.89497000       6.53686000      18.03052000
H       -2.52618000       6.16538000      18.62499000
H       -3.10317000       4.98808000      16.67895000
H        0.59115000       5.85368000      16.26002000
H        1.81628000      -0.19725000      16.80297000
H        2.48828000       1.41468000      16.60680000
H       -2.69170000       0.40794000      16.94262000
O       -1.60200000      -6.78400000      21.39500000
C       -2.26800000      -7.65500000      20.47200000
C       -2.91800000      -6.88800000      19.28900000
O       -2.23900000      -5.64100000      19.02900000
C       -3.07300000      -7.66800000      17.95800000
O       -4.49200000      -7.66400000      17.61200000
C       -2.20800000      -6.81300000      17.05600000
C       -2.20500000      -5.40500000      17.62700000
N       -1.07300000      -4.50400000      17.32000000
C       -1.32000000      -3.15500000      17.17000000
O       -2.43200000      -2.66000000      17.12300000
N       -0.19700000      -2.35200000      17.13000000
C        1.11200000      -2.76500000      17.22000000
O        2.05100000      -1.99100000      17.18500000
C        1.27300000      -4.19100000      17.37000000
C        2.56800000      -4.91200000      17.62600000
C        0.20100000      -5.00600000      17.42000000
H       -3.03039000      -8.24370000      20.98356000
H       -1.52481000      -8.33900000      20.06013000
H       -3.92780000      -6.62035000      19.60593000
H       -2.69495000      -8.68971000      18.01234000
H       -1.21547000      -7.25104000      17.05412000
H       -2.55828000      -6.79738000      16.02461000
H       -3.14207000      -4.92474000      17.31102000
H       -0.39554000      -1.31075000      16.98380000
H        2.70862000      -5.69163000      16.87628000
H        3.39707000      -4.20741000      17.54651000
H        2.56408000      -5.34533000      18.62552000
H        0.36002000      -6.05603000      17.58621000
P       -4.96600000      -8.19300000      16.14200000
O       -6.24700000      -8.92800000      16.21300000
O       -3.93200000      -9.01900000      15.48000000
O       -5.12700000      -6.71300000      15.44600000
C       -6.28400000      -5.93400000      15.86300000
C       -6.43300000      -4.53200000      15.23100000
O       -5.26300000      -3.71700000      15.35600000
C       -6.76800000      -4.67100000      13.75000000
O       -8.06000000      -4.08800000      13.44200000
C       -5.56200000      -4.10800000      13.03600000
C       -4.95400000      -3.18600000      14.06400000
N       -3.51500000      -3.01300000      13.94000000
C       -2.61100000      -4.05200000      14.02000000
N       -1.36000000      -3.67700000      13.94000000
C       -1.43100000      -2.29000000      13.80001000
C       -0.39900000      -1.33100000      13.67000000
O        0.79200000      -1.58900000      13.67799000
N       -0.91900000      -0.03100000      13.55003000
C       -2.26198000       0.29000000      13.54993000
N       -2.60001000       1.62500000      13.48006000
N       -3.23300000      -0.61100000      13.67998000
C       -2.75100000      -1.87700000      13.80000000
H       -6.22771000      -5.79778000      16.94251000
H       -7.18855000      -6.50548000      15.64714000
H       -7.26742000      -4.02081000      15.70877000
H       -6.82809000      -5.72942000      13.48361000
H       -4.88351000      -4.93360000      12.82238000
H       -5.79928000      -3.61602000      12.11517000
H       -5.42347000      -2.20376000      13.95430000
H       -2.93294000      -5.07791000      14.14242000
H       -0.20766000       0.75512000      13.43252000
H       -1.86917000       2.35123000      13.50701000
H       -3.51633000       1.90030000      13.81142000
P       -8.54300000      -4.04800000      11.88400000
O      -10.01700000      -4.01200000      11.77200000
O       -7.99100000      -5.16600000      11.08800000
O       -7.86400000      -2.61400000      11.48200000
C       -8.35500000      -1.46100000      12.20600000
C       -7.84500000      -0.09700000      11.82100000
O       -6.44200000       0.04800000      12.02800000
C       -8.26300000       0.18600000      10.39400000
O       -8.89200000       1.49100000      10.27900000
C       -6.95000000      -0.00300000       9.73900000
C       -5.89700000       0.34200000      10.75900000
N       -4.61500000      -0.37100000      10.56000000
C       -4.51900000      -1.73500000      10.64000000
N       -3.29800000      -2.17400000      10.57000000
C       -2.54000000      -1.02600000      10.42000000
C       -1.15200000      -0.81300000      10.29000000
N       -0.28000000      -1.83600000      10.28300000
N       -0.73000000       0.45400000      10.17000000
C       -1.62800000       1.43500000      10.18000000
N       -2.93600000       1.36900000      10.30000000
C       -3.32900000       0.08700000      10.42000000
H       -8.12050000      -1.59874000      13.26143000
H       -9.44278000      -1.44423000      12.11651000
H       -8.35158000       0.62903000      12.45532000
H       -8.96163000      -0.57046000      10.02551000
H       -6.88504000      -1.05431000       9.46615000
H       -6.87349000       0.62221000       8.86747000
H       -5.70326000       1.41812000      10.69254000
H       -5.39942000      -2.35197000      10.70008000
H        0.73540000      -1.69356000      10.19124000
H       -0.61359000      -2.80221000      10.31115000
H       -1.22168000       2.43302000      10.07568000
P       -9.39200000       1.98800000       8.80900000
O      -10.55700000       2.89500000       8.90600000
O       -9.68700000       0.86200000       7.89600000
O       -8.03300000       2.78200000       8.37700000
C       -7.66200000       3.94000000       9.17000000
C       -6.34500000       4.57000000       8.71099000
O       -5.27300000       3.61700000       8.82601000
C       -6.39200000       5.20000000       7.32100000
O       -5.90400000       6.57100000       7.38800000
C       -5.48400000       4.24600000       6.61300000
C       -4.52600000       3.69500000       7.62200000
N       -3.95200000       2.41200000       7.18000000
C       -2.59300000       2.23000000       7.03000000
O       -1.78400000       3.14000000       6.98800000
N       -2.17600000       0.91500000       6.99001000
C       -2.97300000      -0.20300000       7.08000000
O       -2.52400000      -1.33300000       7.03197000
C       -4.37900000       0.08400000       7.23000000
C       -5.39700000      -1.01100000       7.18000000
C       -4.82300000       1.35600000       7.28000000
H       -7.54703000       3.63874000      10.21153000
H       -8.45524000       4.68623000       9.10907000
H       -6.12724000       5.38048000       9.40658000
H       -7.40268000       5.16421000       6.90714000
H       -6.09971000       3.45482000       6.18665000
H       -4.95098000       4.74593000       5.81770000
H       -3.71839000       4.42337000       7.75883000
H       -1.10345000       0.78162000       6.88611000
H       -6.41420000      -0.62867000       7.10207000
H       -5.20547000      -1.61801000       6.29549000
H       -5.28407000      -1.66137000       8.04401000
H       -5.87717000       1.57756000       7.37660000
P       -6.08300000       7.51000000       6.07200000
O       -6.23100000       8.94000000       6.42400000
O       -7.19600000       7.07500000       5.19900000
O       -4.62900000       7.17200000       5.42700000
C       -3.47000000       7.82800000       6.00600000
C       -2.22600000       7.57600000       5.12300000
O       -1.76900000       6.21000000       5.21100000
C       -2.44100000       8.00700000       3.66700000
O       -1.37700000       8.89800000       3.21200000
C       -2.40500000       6.64300000       3.03500000
C       -1.51900000       5.73200000       3.89200000
N       -1.77900000       4.27400000       3.80000000
C       -0.78800000       3.30700000       3.65000000
O        0.39800000       3.60300000       3.58700000
N       -1.15200000       2.00300000       3.59999000
C       -2.43699000       1.64400000       3.70003000
N       -2.80004000       0.28901000       3.62998000
C       -3.47400000       2.61800000       3.84999000
C       -3.08600000       3.92100000       3.90000000
H       -3.28985000       7.44298000       7.01057000
H       -3.65040000       8.90242000       6.06022000
H       -1.42841000       8.20175000       5.52219000
H       -3.41806000       8.47512000       3.52453000
H       -3.43667000       6.30874000       2.98739000
H       -2.04232000       6.67780000       2.01328000
H       -0.46938000       5.92682000       3.64886000
H       -2.07437000      -0.43921000       3.59612000
H       -3.72448000      -0.03393000       3.91027000
H       -4.51092000       2.35179000       3.96136000
H       -3.82976000       4.68212000       4.08484000
P       -1.36300000       9.38000000       1.64300000
O       -0.92600000      10.78600000       1.50100000
O       -2.65900000       9.17300000       0.96100000
O       -0.22000000       8.33400000       1.10400000
C        1.09600000       8.50100000       1.68200000
C        2.23900000       7.71100000       1.00700000
O        2.20100000       6.32500000       1.38300000
C        2.34100000       7.82500000      -0.51500000
O        3.65700000       8.14200000      -0.98900000
C        1.93500000       6.44500000      -0.97000000
C        2.14600000       5.49800000       0.21800000
N        1.07300000       4.50400000       0.42000000
C       -0.25300000       4.83300000       0.50000000
N       -1.04900000       3.80800000       0.43000000
C       -0.19100000       2.73300000       0.27998000
C       -0.41700000       1.34699000       0.15006000
N       -1.65800000       0.83000000       0.16298000
N        0.65800000       0.55400000       0.02996000
C        1.86800000       1.10500000       0.04001000
N        2.21000000       2.37000000       0.16000000
C        1.11200000       3.13900000       0.28000000
H        1.05802000       8.21664000       2.73565000
H        1.35483000       9.55978000       1.63718000
H        3.15856000       8.10755000       1.43449000
H        1.61997000       8.56337000      -0.87581000
H        4.00623000       8.85013000      -0.44165000
H        0.87940000       6.47897000      -1.24001000
H        2.51440000       6.11744000      -1.83288000
H        3.09747000       4.96934000       0.11781000
H       -0.58867000       5.85583000       0.62116000
H       -1.83518000      -0.18397000       0.08065000
H       -2.46077000       1.42801000       0.30779000
H        2.69174000       0.40806000      -0.04324000
H       -1.45665000      -5.95837000      20.90607000
H        1.75997000      -5.59948000      -4.10824000
H       -3.74367000       8.00796000      18.63331000
H       -6.24765000      -9.88355000      16.30531000
H      -10.42933000      -3.74671000      10.94665000
H      -10.42239000       3.84013000       9.00708000
H       -5.45178000       9.48447000       6.55802000
H        0.01008000      10.99788000       1.47960000
H        7.05809000      -8.44316000       0.67856000
H       10.74781000      -4.51130000       4.81496000
H       11.45293000       2.53592000       7.96448000
H        6.99576000       9.38778000      10.10800000
H        1.55454000      11.52894000      15.29481000
$write
gbsa=true 
