228
Properties=species:S:1:pos:R:3 pbc="F F F"
O        4.37800000      -0.70800000      10.37300000
C        4.09700000       0.62300000       9.99300000
C        5.03100000       1.01700000       8.83900000
O        4.78300000       0.12700000       7.75300000
C        4.73600000       2.42400000       8.31700000
O        5.92300000       2.92700000       7.72700000
C        3.60800000       2.15800000       7.32200000
C        3.98900000       0.78300000       6.76300000
N        2.82100000      -0.06500000       6.39000000
C        1.59800000      -0.21600000       7.01100000
N        0.83400000      -1.12700000       6.48200000
C        1.57001000      -1.58401000       5.38701000
C        1.25097000      -2.55296000       4.37697000
O        0.25304000      -3.25804000       4.25803000
N        2.23300000      -2.68100000       3.41400000
C        3.38800000      -1.95900000       3.40300000
N        4.22100000      -2.19400000       2.41700000
N        3.72800000      -1.06500000       4.33500000
C        2.77200000      -0.91300000       5.30400000
H        4.26600000       1.29000000      10.84000000
H        3.05500000       0.70300000       9.68100000
H        6.06800000       0.94200000       9.17200000
H        4.40200000       3.07300000       9.13000000
H        2.65800000       2.12600000       7.85400000
H        3.55300000       2.90600000       6.53300000
H        4.60900000       0.94000000       5.87800000
H        1.31900000       0.33500000       7.89900000
H        2.06900000      -3.33300000       2.66700000
H        3.98900000      -2.87300000       1.70700000
H        5.08300000      -1.67400000       2.37200000
H        4.26900000      -1.27600000       9.59700000
P        6.05600000       4.45500000       7.23500000
O        7.49300000       4.79300000       7.17200000
O        5.13200000       5.27600000       8.04700000
O        5.48300000       4.35900000       5.73400000
C        6.19400000       3.65700000       4.72600000
C        5.32400000       3.48800000       3.48100000
O        4.22700000       2.60400000       3.70700000
C        4.76400000       4.79200000       2.88800000
O        5.31000000       4.96200000       1.58600000
C        3.27900000       4.46500000       2.84600000
C        3.22500000       2.93900000       2.76600000
N        1.96300000       2.24800000       3.15900000
C        1.59500000       1.08000000       2.48400000
O        2.23100000       0.65400000       1.52100000
N        0.50600000       0.37600000       2.89200000
C       -0.17200000       0.77500000       3.95600000
N       -1.21600000       0.05400000       4.28500000
C        0.16800000       1.94700000       4.69400000
C        1.20400000       2.68200000       4.22000000
H        6.47900000       2.66700000       5.08700000
H        7.09700000       4.20900000       4.46100000
H        5.95400000       3.02100000       2.72100000
H        4.96300000       5.65800000       3.52200000
H        2.83500000       4.82900000       3.77100000
H        2.75100000       4.91500000       2.01200000
H        3.53600000       2.63200000       1.76400000
H       -1.44500000      -0.75500000       3.72700000
H       -1.75300000       0.29300000       5.10200000
H       -0.38400000       2.28300000       5.55900000
H        1.48400000       3.57900000       4.75300000
P        4.84700000       6.13700000       0.57600000
O        5.95300000       6.38600000      -0.37200000
O        4.27700000       7.24700000       1.36900000
O        3.64600000       5.43100000      -0.23500000
C        3.88700000       4.29500000      -1.05100000
C        2.61200000       3.74200000      -1.70200000
O        1.66700000       3.38300000      -0.70200000
C        1.91600000       4.70900000      -2.66600000
O        1.38900000       3.92300000      -3.72300000
C        0.86000000       5.34200000      -1.76600000
C        0.49300000       4.17500000      -0.85400000
N       -0.01600000       4.54200000       0.49200000
C        0.19600000       5.65200000       1.27100000
N       -0.28300000       5.55300000       2.48700000
C       -1.05500000       4.38300000       2.43300000
C       -1.98498000       3.79199000       3.36199000
O       -2.30100000       4.14800000       4.49400000
N       -2.60939000       2.65313000       2.87672000
C       -2.37393000       2.11995000       1.64203000
N       -2.96716000       0.99355000       1.31647000
N       -1.52900000       2.64500000       0.76300000
C       -0.90500000       3.77600000       1.20700000
H        4.33200000       3.50300000      -0.44600000
H        4.59300000       4.55600000      -1.84100000
H        2.89600000       2.84200000      -2.25000000
H        2.60800000       5.46000000      -3.05300000
H        1.30800000       6.15900000      -1.20200000
H       -0.00700000       5.70800000      -2.31100000
H       -0.26300000       3.57800000      -1.36900000
H        0.84100000       6.46500000       0.96500000
H       -3.25766000       2.18797000       3.48833000
H       -3.57888000       0.52735000       1.96651000
H       -2.80119000       0.60013000       0.40091000
P        0.44200000       4.50800000      -4.88700000
O        0.72400000       3.76500000      -6.13300000
O        0.52200000       5.98600000      -4.87000000
O       -1.00600000       4.06600000      -4.33400000
C       -1.36700000       2.69300000      -4.26500000
C       -2.81500000       2.49500000      -3.79800000
O       -2.94400000       2.85500000      -2.43100000
C       -3.80100000       3.32400000      -4.62900000
O       -4.96600000       2.53300000      -4.80501000
C       -4.12300000       4.46100000      -3.66800000
C       -4.05200000       3.72400000      -2.32800000
N       -3.85700000       4.61500000      -1.16700000
C       -2.92200000       5.60400000      -0.99700000
N       -2.98500000       6.21700000       0.15400000
C       -4.06100000       5.58500000       0.78600000
C       -4.69000000       5.72500000       2.04200000
N       -4.28700000       6.54800000       2.99300000
N       -5.75800000       4.98800000       2.35800000
C       -6.18100000       4.09300000       1.47700000
N       -5.66000000       3.80800000       0.28900000
C       -4.59800000       4.60800000      -0.00900000
H       -0.69800000       2.17800000      -3.57800000
H       -1.26300000       2.23800000      -5.25200000
H       -3.06000000       1.43800000      -3.90700000
H       -3.36600000       3.66600000      -5.57100000
H       -3.36100000       5.23800000      -3.73600000
H       -5.11500000       4.87900000      -3.84600000
H       -4.96300000       3.13400000      -2.19700000
H       -2.19000000       5.84700000      -1.75400000
H       -4.78500000       6.56700000       3.86900000
H       -3.47700000       7.13000000       2.84100000
H       -7.03900000       3.50500000       1.77200000
P       -5.90600000       2.63500000      -6.10700000
O       -5.47500000       3.76400000      -6.95800000
O       -7.32200000       2.47500000      -5.70700000
O       -5.34800000       1.24300000      -6.70400000
C       -5.86800000       0.01100000      -6.22800000
C       -4.81900000      -1.10900000      -6.27800000
O       -3.82500000      -0.77000000      -5.32000000
C       -5.38000000      -2.47100000      -5.83100000
O       -4.81600000      -3.46800000      -6.67100000
C       -4.90800000      -2.55800000      -4.37300000
C       -3.55100000      -1.88600000      -4.50500000
N       -2.91200000      -1.37800000      -3.26900000
C       -3.47300000      -0.98300000      -2.07700000
N       -2.65800000      -0.33500000      -1.28500000
C       -1.45600000      -0.33100000      -2.00900000
C       -0.17100000       0.22200000      -1.81200000
N        0.16500000       0.99200000      -0.79700000
N        0.81400000       0.01300000      -2.69000000
C        0.54100000      -0.70500000      -3.77000000
N       -0.62000000      -1.24800000      -4.11500000
C       -1.58700000      -1.02300000      -3.18300000
H       -6.73000000      -0.27000000      -6.83500000
H       -6.19700000       0.11400000      -5.19200000
H       -4.39100000      -1.17800000      -7.28000000
H       -6.47000000      -2.49100000      -5.89200000
H       -5.57200000      -1.97300000      -3.73500000
H       -4.82400000      -3.57700000      -4.00000000
H       -2.86400000      -2.55900000      -5.02400000
H       -4.51400000      -1.14900000      -1.83500000
H        1.10000000       1.36600000      -0.74400000
H       -0.53000000       1.25300000      -0.11300000
H        1.35800000      -0.85100000      -4.46200000
P       -5.13400000      -5.04400000      -6.50000000
O       -4.93400000      -5.70100000      -7.81000000
O       -6.42000000      -5.18400000      -5.78100000
O       -3.93700000      -5.48900000      -5.51600000
C       -2.58800000      -5.40900000      -5.94600000
C       -1.59800000      -5.50800000      -4.78300000
O       -1.90100000      -4.58400000      -3.75300000
C       -1.50600000      -6.88500000      -4.12100000
O       -0.58700000      -7.68200000      -4.86000000
C       -1.05200000      -6.52700000      -2.69900000
C       -1.17800000      -5.00900000      -2.62000000
N       -1.75000000      -4.48400000      -1.35800000
C       -2.83400000      -4.85300000      -0.58300000
N       -3.02900000      -4.09700000       0.46100000
C       -1.92002000      -3.25697000       0.48297000
C       -1.50694000      -2.25816000       1.42911000
O       -2.09683000      -1.82101000       2.41700000
N       -0.25004000      -1.74893000       1.16395000
C        0.53400000      -2.15400000       0.13000000
N        1.72200000      -1.60800000       0.02900000
N        0.15600000      -3.03100000      -0.80000000
C       -1.09100000      -3.55200000      -0.57600000
H       -2.41800000      -4.45200000      -6.44200000
H       -2.38200000      -6.20500000      -6.66400000
H       -0.60700000      -5.25900000      -5.17100000
H       -2.49100000      -7.35500000      -4.08600000
H       -1.69100000      -7.02200000      -1.96800000
H       -0.01400000      -6.78200000      -2.52200000
H       -0.16600000      -4.60900000      -2.72300000
H       -3.52300000      -5.63100000      -0.88500000
H        0.10800000      -1.05000000       1.79000000
H        2.00800000      -0.89200000       0.67900000
H        2.31200000      -1.86200000      -0.74600000
P        0.11100000      -9.03100000      -4.29500000
O        0.51400000      -9.87500000      -5.43900000
O       -0.71400000      -9.58600000      -3.19900000
O        1.44900000      -8.41100000      -3.64800000
C        2.33000000      -7.62500000      -4.43500000
C        3.41600000      -6.98300000      -3.57100000
O        2.84400000      -6.07300000      -2.64800000
C        4.24100000      -8.01300000      -2.79400000
O        5.59300000      -8.00400000      -3.23000000
C        4.16100000      -7.56800000      -1.34200000
C        3.52100000      -6.16200000      -1.40800000
N        2.49000000      -5.97300000      -0.33200000
C        2.62000000      -4.94100000       0.60400000
O        3.58900000      -4.18100000       0.59500000
N        1.67900000      -4.78400000       1.57200000
C        0.64198000      -5.60686000       1.60394000
N       -0.26387000      -5.37538000       2.51920000
C        0.49800000      -6.71000000       0.71200000
C        1.44400000      -6.87000000      -0.24600000
H        1.78100000      -6.82700000      -4.93700000
H        2.80100000      -8.25200000      -5.19400000
H        4.08200000      -6.41900000      -4.22700000
H        3.82300000      -9.01700000      -2.89700000
H        5.63400000      -8.37000000      -4.12400000
H        3.55300000      -8.27800000      -0.78200000
H        5.14800000      -7.51000000      -0.88000000
H        4.30400000      -5.40100000      -1.36100000
H       -0.13603000      -4.59893000       3.14992000
H       -1.07608000      -5.96783000       2.58195000
H       -0.33100000      -7.40000000       0.76300000
H        1.36900000      -7.68600000      -0.95400000
H       -4.53978000       3.93705000      -7.08844000
H        1.37811000       6.42034000      -4.86500000
H        4.85905000       7.86818000       1.81278000
H        8.15328000       4.10793000       7.29969000
H        1.44478000     -10.01455000      -5.62815000
H       -4.04535000      -5.86381000      -8.13463000
$write
gbsa=true 
